@<TRIPOS>MOLECULE
modXNA-fragment:CF2:HEAD01:@C5':HEAD01STRIP:@O1,H6:TAIL01:@O3':TAIL01STRIP:@H7:HEAD03:@C1':HEAD03STRIP:@C6,H8,H9,H10
   24    24     1     0     0
SMALL
USER_CHARGES


@<TRIPOS>ATOM
      1 O1          -2.3730    -0.1550     1.5960 OH         1 CF2      -0.694993
      2 C5'         -2.8130    -0.4170     0.2900 CT         1 CF2       0.097118
      3 H5'         -3.5830     0.2860    -0.0120 H1         1 CF2       0.027579
      4 H5''        -3.2200    -1.4240     0.2140 H1         1 CF2       0.027579
      5 C4'         -1.6390    -0.2830    -0.6580 CT         1 CF2       0.217960
      6 H4'         -1.9350    -0.6460    -1.6370 H1         1 CF2       0.031308
      7 O4'         -1.2770     1.0730    -0.7420 OS         1 CF2      -0.517627
      8 C1'          0.1170     1.2370    -0.6700 CT         1 CF2       0.359314
      9 C3'         -0.3870    -1.0560    -0.2120 CT         1 CF2       0.163368
     10 H3'         -0.6010    -1.7220     0.6130 H1         1 CF2       0.038074
     11 C2'          0.5750     0.0630     0.2050 CT         1 CF2      -0.128957
     12 H2'          0.4010     0.3030     1.2480 HC         1 CF2       0.102387
     13 O3'          0.0910    -1.7940    -1.3140 OH         1 CF2      -0.701432
     14 H6          -3.1140    -0.0900     2.1810 HO         1 CF2       0.456292
     15 C6           0.4180     2.6240    -0.1360 CT         1 CF2      -0.382225
     16 H7           0.6930    -2.4580    -1.0060 HO         1 CF2       0.428202
     17 H1'          0.5410     1.1280    -1.6680 H1         1 CF2      -0.008124
     18 H8           1.4860     2.7910    -0.0730 HC         1 CF2       0.132304
     19 H9          -0.0140     2.7440     0.8510 HC         1 CF2       0.132304
     20 H10         -0.0130     3.3730    -0.7910 HC         1 CF2       0.132304
     21 C7           2.0240    -0.3120     0.0410 CT         1 CF2       0.329155
     22 H11          2.3360    -0.4150    -0.9840 H2         1 CF2       0.048206
     23 F1           2.8180     0.6040     0.6260 F          1 CF2      -0.254417
     24 F2           2.2630    -1.4920     0.6610 F          1 CF2      -0.254417
@<TRIPOS>BOND
     1     1     2 1   
     2     1    14 1   
     3     2     3 1   
     4     2     4 1   
     5     2     5 1   
     6     5     6 1   
     7     5     7 1   
     8     5     9 1   
     9     7     8 1   
    10     8    11 1   
    11     8    15 1   
    12     8    17 1   
    13     9    10 1   
    14     9    11 1   
    15     9    13 1   
    16    11    12 1   
    17    11    21 1   
    18    13    16 1   
    19    15    18 1   
    20    15    19 1   
    21    15    20 1   
    22    21    22 1   
    23    21    23 1   
    24    21    24 1   
@<TRIPOS>SUBSTRUCTURE
     1 CF2         1 TEMP              0 ****  ****    0 ROOT
